% -------------------------------------------------------------------
%  Generated by MATLAB on 9-Nov-2016 14:47:05
%  MATLAB version: 9.1.0.441655 (R2016b)
% -------------------------------------------------------------------
                                    

mpc = struct;
mpc.version = '2';
mpc.baseMVA = 100;
mpc.gen = ...
  [1 0 0 30 -30 1 100 1 40 4 0 0 0 0 0 0 0 0 0 0 0;
   1 158.157 0 127.5 -127.5 1 100 1 170 17 0 0 0 0 0 0 0 0 0 0 0;
   3 0 0 390 -390 1 100 1 520 52 0 0 0 0 0 0 0 0 0 0 0;
   4 0 0 150 -150 1 100 1 200 20 0 0 0 0 0 0 0 0 0 0 0;
   5 543.7629 0 450 -450 1 100 1 600 60 0 0 0 0 0 0 0 0 0 0 0];
mpc.branch = ...
  [1 2 0.00281 0.0281 0.00712 400 400 400 0 1 1 -60 60;
   1 4 0.00304 0.0304 0.00658 1000 1000 1000 0 1 1 -60 60;
   1 5 0.00064 0.0064 0.03126 1000 1000 1000 0 1 1 -60 60;
   2 3 0.00108 0.0108 0.01852 1000 1000 1000 0 1 1 -60 60;
   3 4 0.00297 0.0297 0.00674 1000 1000 1000 0 1 1 -60 60;
   4 5 0.00297 0.0297 0.00674 240 240 240 0 1 1 -60 60];
mpc.bus = ...
  [1 3 0 0 0 0 1 1 0 230 1 1.05 0.95;
   2 1 135.044603422 28.2205 0 0 1 1 0 230 1 1.05 0.95;
   3 1 295.7860916 82.1377 0 0 1 1 0 230 1 1.05 0.95;
   4 1 265.846365025 68.5916 0 0 1 1 0 230 1 1.05 0.95;
   5 2 0 0 0 0 1 1 0 230 1 1.05 0.95];

